-------------------------------------------------------
          Amber 20 PMEMD                              2020
          -------------------------------------------------------

  [-O]verwriting output

File Assignments:

 Here is the input file:

FreeEnergyEquilibration
&cntrl
   ntpr=200,
   ntwr=1000,
   ntwx=1000,
   ntxo=2,
   irest=0,
   ntx=1,
   dt=0.002,
   nstlim=100000,
   ntc=2,
   ntf=1,
   cut=8.0,
   iwrap=1,
   ntb=1,
   ntt=3,
   gamma_ln=1.00000,
   tempi=300.00,
   temp0=300.00,
   icfe=1,
   ifsc=1,
   mbar_states=11,
   mbar_lambda=0.00000, 0.10000, 0.20000, 0.30000, 0.40000, 0.50000, 0.60000, 0
   clambda=0.00000,
   timask1="@6484-6488",
   timask2="@6489-6494",
   scmask1="",
   scmask2="@6494",
   noshakemask="",
   ig=-1,
/

Note: ig = -1. Setting random seed to   746933 based on wallclock time in
      microseconds.

--------------------------------------------------------------------------------
   1.  RESOURCE   USE:
--------------------------------------------------------------------------------

 getting new box info from bottom of inpcrd
 NATOM  =    6494 NTYPES =       7 NBONH =    6491 MBONA  =       1
 NTHETH =      13 MTHETA =       0 NPHIH =       3 MPHIA  =       0
 NHPARM =       0 NPARM  =       0 NNB   =    8671 NRES   =    2163
 NBONA  =       1 NTHETA =       0 NPHIA =       0 NUMBND =       5
 NUMANG =       3 NPTRA  =       1 NATYP =       8 NPHB   =       0
 IFBOX  =       1 NMXRS  =       6 IFCAP =       0 NEXTRA =       0
 NCOPY  =       0

     BOX TYPE: RECTILINEAR

--------------------------------------------------------------------------------
   2.  CONTROL  DATA  FOR  THE  RUN
--------------------------------------------------------------------------------

General flags:
     imin    =       0, nmropt  =       0

Nature and format of input:
     ntx     =       1, irest   =       0, ntrx    =       1

Nature and format of output:
     ntxo    =       2, ntpr    =     200, ntrx    =       1, ntwr    =    1000
     iwrap   =       1, ntwx    =    1000, ntwv    =       0, ntwe    =       0
     ioutfm  =       1, ntwprt  =       0, idecomp =       0, rbornstat=      0

Potential function:
     ntf     =       1, ntb     =       1, igb     =       0, nsnb    =      25
     ipol    =       0, gbsa    =       0, iesp    =       0
     dielc   =   1.00000, cut     =   8.00000, intdiel =   1.00000

Frozen or restrained atoms:
     ibelly  =       0, ntr     =       0

Molecular dynamics:
     nstlim  =    100000, nscm    =      1000, nrespa  =         1
     t       =   0.00000, dt      =   0.00200, vlimit  =  -1.00000

Langevin dynamics temperature regulation:
     ig      =  746933
     temp0   = 300.00000, tempi   = 300.00000, gamma_ln=   1.00000

SHAKE:
     ntc     =       2, jfastw  =       0
     tol     =   0.00001

Free energy options:
     icfe    =       1, ifsc    =       1, klambda =       1
     clambda =  0.0000, scalpha =  0.5000, scbeta  = 12.0000
     sceeorder =       2
     dynlmb =  0.0000 logdvdl =       0

Ewald parameters:
     verbose =       0, ew_type =       0, nbflag  =       1, use_pme =       1
     vdwmeth =       1, eedmeth =       1, netfrc  =       1
     Box X =   40.000   Box Y =   40.000   Box Z =   40.000
     Alpha =   90.000   Beta  =   90.000   Gamma =   90.000
     NFFT1 =   40       NFFT2 =   40       NFFT3 =   40
     Cutoff=    8.000   Tol   =0.100E-04
     Ewald Coefficient =  0.34864
     Interpolation order =    4
     TI Mask 1 @6484-6488; matches      5 atoms
     TI Mask 2 @6489-6494; matches      6 atoms
     TI region 1:    6488 atoms
     TI region 2:    6489 atoms
     SC Mask 2 @6494; matches      1 atoms

--------------------------------------------------------------------------------
   3.  ATOMIC COORDINATES AND VELOCITIES
--------------------------------------------------------------------------------

 begin time read from input coords =     0.000 ps

 Number of triangulated 3-point waters found:     2161
   Removing shake constraints from H     LIG *** -- H     LIG ***
 WARNING: Large deviation of .333 detected in equilibrium bond length for
     SHAKEn TI atoms     6484      6486   and     6489      6491
 WARNING: Large deviation of .333 detected in equilibrium bond length for
     SHAKEn TI atoms     6489      6491   and     6484      6486
 Coordinates for common atoms will be synchronized from V0.
 Consider using noshake mask or disabling SHAKE.

 Number of shake restraints removed in TI region  1 :        0
 Number of shake restraints removed in TI region  2 :        1

     Sum of charges for TI region  1 =   0.00000000
     Skip neutralizing charges...

     Sum of charges for TI region  2 =  -0.00000000
     Skip neutralizing charges...

--------------------------------------------------------------------------------
   4.  RESULTS
 NSTEP =        0   TIME(PS) =       0.000  TEMP(K) =   452.95  PRESS =     0.0
 Etot   =    -22038.2878  EKtot   =      5840.3473  EPtot      =    -27878.6351
 BOND   =      2220.2471  ANGLE   =         3.3530  DIHED      =         0.0000
 1-4 NB =         0.0000  1-4 EEL =         0.0000  VDWAALS    =      5504.2303
 EELEC  =    -35606.4655  EHBOND  =         0.0000  RESTRAINT  =         0.0000
 DV/DL  =        34.5464
 ------------------------------------------------------------------------------

      A V E R A G E S   O V E R     500 S T E P S

 NSTEP =   100000   TIME(PS) =     200.000  TEMP(K) =   299.07  PRESS =     0.0
 Etot   =    -16909.7778  EKtot   =      3856.2283  EPtot      =    -20766.0061
 BOND   =         0.0000  ANGLE   =         5.0980  DIHED      =         0.0000
 1-4 NB =         0.0000  1-4 EEL =         0.0000  VDWAALS    =      3154.0362
 EELEC  =    -23925.1403  EHBOND  =         0.0000  RESTRAINT  =         0.0000
 DV/DL  =        40.4791
 ------------------------------------------------------------------------------

      R M S  F L U C T U A T I O N S

 NSTEP =   100000   TIME(PS) =     200.000  TEMP(K) =     7.28  PRESS =     0.0
 Etot   =       252.2345  EKtot   =        93.8634  EPtot      =       171.1637
 BOND   =         0.0000  ANGLE   =         1.1015  DIHED      =         0.0000
 1-4 NB =         0.0000  1-4 EEL =         0.0000  VDWAALS    =        93.6353
 EELEC  =       244.2147  EHBOND  =         0.0000  RESTRAINT  =         0.0000
 DV/DL  =         3.2810
 ------------------------------------------------------------------------------

      A V E R A G E S   O V E R     500 S T E P S

 NSTEP =   100000   TIME(PS) =     200.000  TEMP(K) =   299.74  PRESS =     0.0
 Etot   =    -16900.0306  EKtot   =      3865.9755  EPtot      =    -20766.0061
 BOND   =         0.0000  ANGLE   =         5.0980  DIHED      =         0.0000
 1-4 NB =         0.0000  1-4 EEL =         0.0000  VDWAALS    =      3154.0362
 EELEC  =    -23925.1403  EHBOND  =         0.0000  RESTRAINT  =         0.0000
 DV/DL  =        40.4791
 ------------------------------------------------------------------------------

      R M S  F L U C T U A T I O N S

 NSTEP =   100000   TIME(PS) =     200.000  TEMP(K) =     7.32  PRESS =     0.0
 Etot   =       252.4307  EKtot   =        94.4693  EPtot      =       171.1637
 BOND   =         0.0000  ANGLE   =         1.1015  DIHED      =         0.0000
 1-4 NB =         0.0000  1-4 EEL =         0.0000  VDWAALS    =        93.6353
 EELEC  =       244.2147  EHBOND  =         0.0000  RESTRAINT  =         0.0000
 DV/DL  =         3.2810
 ------------------------------------------------------------------------------

      DV/DL, AVERAGES OVER     500 STEPS

 NSTEP =   100000   TIME(PS) =     200.000  TEMP(K) =     7.32  PRESS =     0.0
 Etot   =         0.0000  EKtot   =         0.0000  EPtot      =        40.4791
 BOND   =        36.6877  ANGLE   =         0.8461  DIHED      =         0.0000
 1-4 NB =        -0.0003  1-4 EEL =         4.2725  VDWAALS    =         0.2695
 EELEC  =        -1.5963  EHBOND  =         0.0000  RESTRAINT  =         0.0000
 DV/DL  =        40.4791
 ------------------------------------------------------------------------------
